Circuit: * C:\Users\Yixuan\iCloudDrive\MSc Electronics\Semester 3\Buck Lab - Complete Material\Buck Lab - Complete Material\Week 1 Material\LTSpice Model\BuckLabFinal.asc

q1:1:v_sm: Missing value, assumed 0V @ DC
q1:2:v_sm: Missing value, assumed 0V @ DC
Early termination of direct N-R iteration.
Direct Newton iteration failed to find .op point.  (Use ".option noopiter" to skip.)
Starting Gmin stepping
Increasing initial diagonal Gmin to 100
Increasing initial diagonal Gmin to 1000
Increasing initial diagonal Gmin to 10000
Increasing initial diagonal Gmin to 100000
Increasing initial diagonal Gmin to 1e+006
Initial Gmin=1e+006 failed
Gmin stepping failed

Starting source stepping with srcstepmethod=0
Source Step = 3.0303%
vernier = 0.25
Source Step = 0.0799006%
Source Step = 0.109493%
Source Step = 0.139086%
Source Step = 0.168679%
Source Step = 0.198272%
vernier = 0.00146484
Source Step = 0.230824%
Source Step = 0.275213%
Source Step = 0.319602%
Source Step = 0.363991%
Source Step = 0.408381%
vernier = 0.00219727
Source Step = 0.454989%
Source Step = 0.521573%
Source Step = 0.588157%
Source Step = 0.654741%
Source Step = 0.721325%
Source Step = 0.787908%
vernier = 0.0032959
Source Step = 0.887784%
Source Step = 0.98766%
Source Step = 1.08754%
Source Step = 1.18741%
Source Step = 1.28729%
vernier = 0.00494385
Source Step = 1.43211%
Source Step = 1.58192%
Source Step = 1.73173%
Source Step = 1.88155%
Source Step = 2.03136%
vernier = 0.00741577
Source Step = 2.2411%
Source Step = 2.46582%
Source Step = 2.69054%
Source Step = 2.91526%
Source Step = 3.13998%
vernier = 0.0111237
Source Step = 3.44335%
Source Step = 3.78043%
Source Step = 4.11751%
Source Step = 4.4546%
Source Step = 4.79168%
vernier = 0.0166855
Source Step = 5.22988%
Source Step = 5.7355%
Source Step = 6.24112%
Source Step = 6.74674%
Source Step = 7.25236%
vernier = 0.0250282
Source Step = 7.88439%
Source Step = 8.64282%
Source Step = 9.40125%
Source Step = 10.1597%
Source Step = 10.9181%
vernier = 0.0375423
Source Step = 11.8282%
Source Step = 12.9659%
Source Step = 14.1035%
Source Step = 15.2412%
Source Step = 16.3788%
vernier = 0.0563135
Source Step = 17.6871%
Source Step = 19.3936%
Source Step = 21.1001%
Source Step = 22.8065%
Source Step = 24.513%
vernier = 0.0844703
Source Step = 26.3901%
Source Step = 28.9498%
Source Step = 31.5095%
Source Step = 34.0692%
Source Step = 36.6289%
vernier = 0.126705
Source Step = 39.3166%
Source Step = 43.1562%
Source Step = 46.9957%
Source Step = 50.8353%
Source Step = 54.6749%
Source Step = 58.5144%
vernier = 0.190058
Source Step = 64.2737%
Source Step = 70.0331%
Source Step = 75.7924%
Source Step = 81.5518%
Source Step = 87.3111%
vernier = 0.285087
Source Step = 95.6621%
Source stepping succeeded in finding the operating point.

Ignoring empty pin current: Ix(u1:3)
Ignoring empty pin current: Ix(u1:4)
Ignoring empty pin current: Ix(u1:8)
Ignoring empty pin current: Ix(u1:9)
Ignoring empty pin current: Ix(u1:10)
Ignoring empty pin current: Ix(u1:11)
Ignoring empty pin current: Ix(u1:12)
Ignoring empty pin current: Ix(u1:13)
Ignoring empty pin current: Ix(u1:14)
Ignoring empty pin current: Ix(u1:15)
Ignoring empty pin current: Ix(u1:16)
Ignoring empty pin current: Ix(u1:17)
Ignoring empty pin current: Ix(u1:18)
Ignoring empty pin current: Ix(u1:3)
Ignoring empty pin current: Ix(u1:4)
Ignoring empty pin current: Ix(u1:8)
Ignoring empty pin current: Ix(u1:9)
Ignoring empty pin current: Ix(u1:10)
Ignoring empty pin current: Ix(u1:11)
Ignoring empty pin current: Ix(u1:12)
Ignoring empty pin current: Ix(u1:13)
Ignoring empty pin current: Ix(u1:14)
Ignoring empty pin current: Ix(u1:15)
Ignoring empty pin current: Ix(u1:16)
Ignoring empty pin current: Ix(u1:17)
Ignoring empty pin current: Ix(u1:18)
.step rl=3
Heightened Def Con from 1e-014 to 3.00001e-009
Heightened Def Con from 1.20227e-005 to 1.20227e-005
Heightened Def Con from 2.55727e-005 to 2.56107e-005
Heightened Def Con from 2.75451e-005 to 2.75455e-005
.step rl=4
.step rl=5


Measurement: pin
  step	AVG(v(in)*-i(vsupply))	FROM	TO
     1	5.90007	0	0.0001
     2	4.73342	0	0.0001
     3	4.02097	0	0.0001

Measurement: pout
  step	AVG(v(vout+,vout-)*-i(rload))	FROM	TO
     1	4.7357	0	0.0001
     2	3.59488	0	0.0001
     3	2.89631	0	0.0001

Measurement: eff
  step	pout/pin
     1	0.802651
     2	0.759467
     3	0.720301

Measurement: iout
  step	AVG(-i(rload))	FROM	TO
     1	1.25641	0	0.0001
     2	0.948007	0	0.0001
     3	0.761092	0	0.0001

Measurement: vout
  step	AVG(v(vout+, vout-))	FROM	TO
     1	3.76922	0	0.0001
     2	3.79203	0	0.0001
     3	3.80546	0	0.0001


Date: Sun Jun 12 20:02:47 2022
Total elapsed time: 66.341 seconds.

tnom = 27
temp = 27
method = modified trap
totiter = 900901
traniter = 897463
tranpoints = 389138
accept = 352312
rejected = 36827
matrix size = 147
fillins = 674
solver = Normal
Thread vector: 23.1/11.2[5] 2.6/1.7[5] 3.7/1.3[5] 0.4/1.1[1]  2592/500
Matrix Compiler1: 94.45 KB object code size  9.5/4.8/[2.6]
Matrix Compiler2: 22.11 KB object code size  2.0/2.1/[0.6]

